/*---------------------------------------------------------------------------*\
| =========                 |                                                 |
| \\      /  F ield         | OpenFOAM: The Open Source CFD Toolbox           |
|  \\    /   O peration     | Version:  1.4                                   |
|   \\  /    A nd           | Web:      http://www.openfoam.org               |
|    \\/     M anipulation  |                                                 |
\*---------------------------------------------------------------------------*/

FoamFile
{
    version         2.0;
    format          ascii;

    root            "";
    case            "";
    instance        "";
    local           "";

    class           dictionary;
    object          stitchMeshToleranceDict;
}

// * * * * * * * * * * * * * * * * * * * * * * * * * * * * * * * * * * * * * //

//- Point merge tolerance
pointMergeTol 0.3;

//- Edge merge tolerance
edgeMergeTol 0.05;

//- Integral match point adjustment tolerance
integralAdjTol 0.15;

//- Edge intersection master catch fraction
edgeMasterCatchFraction 0.4;

//- Edge end cut-off tolerance
edgeEndCutoffTol 0.0001;

//- Edge intersection co-planar tolerance
edgeCoPlanarTol 0.8;
